&NAM_LUNITn              CINIFILE='GABLS4_0hLES521', 
                  CINIFILEPGD='GABLS4_0h_pgd'  /                 
&NAM_REAL_PGD /

&NAM_DIMn_PRE            NIMAX=200,
                         NJMAX=200 /

&NAM_CONF_PRE            LCARTESIAN = .TRUE.,
                         CEQNSYS = 'DUR',
                         NVERB = 10,
                         CIDEAL = 'RSOU',
                         CZS = 'FLAT',
                         LBOUSS = .FALSE.,
                         LPERTURB = .TRUE.,
                         JPHEXT=3, NHALO=3,
                         LFORCING = .TRUE. /

&NAM_PERT_PRE            CPERT_KIND='WH',
                         XAMPLIWH=0.1 /

&NAM_CONFn               LUSERV = F/

&NAM_LBCn_PRE            CLBCX = 2*"CYCL", 
                         CLBCY = 2*"CYCL" / 

&NAM_GRID_PRE            XLON0=123.33,
                         XLAT0=-75.10/
&NAM_GRIDH_PRE           XDELTAX =5.0,
                         XDELTAY = 5.0,
                         XHMAX = 0.  /

&NAM_VER_GRID            LTHINSHELL = .FALSE., 
                         NKMAX=236, 
                         YZGRID_TYPE='MANUAL' /

&NAM_DYNn_PRE  CPRESOPT='ZRESI'/         


&NAM_GRn_PRE             CSURF = 'EXTE' /

&NAM_PGD_SCHEMES         CNATURE = 'TSZ0'    , 
                         CSEA    = 'NONE'    , 
                         CTOWN   = 'NONE'    , 
                         CWATER  = 'NONE' /
&NAM_FRAC              LECOCLIMAP = T,
                       XUNIF_SEA    = 0.,
                       XUNIF_WATER  = 0.,
                       XUNIF_TOWN   = 0.,
                       XUNIF_NATURE = 1. /
&NAM_COVER          XUNIF_COVER(6)=1./
&NAM_PREP_ISBA_SNOW CSNOW='D95'/
&NAM_DATA_TSZ0      NTIME=25,
XUNIF_DTS(1)=1.76999,
XUNIF_DTS(2)=1.71001,
XUNIF_DTS(3)=1.35001,
XUNIF_DTS(4)=0.720001,
XUNIF_DTS(5)=0.369995,
XUNIF_DTS(6)=-0.0100098,
XUNIF_DTS(7)=-0.379990,
XUNIF_DTS(8)=-0.650009,
XUNIF_DTS(9)=-1.29999,
XUNIF_DTS(10)=-1.79001,
XUNIF_DTS(11)=-2.09999,
XUNIF_DTS(12)=-2.35001,
XUNIF_DTS(13)=-2.19000,
XUNIF_DTS(14)=-2.24001,
XUNIF_DTS(15)=-1.39000,
XUNIF_DTS(16)=-1.12000,
XUNIF_DTS(17)=-0.679993,
XUNIF_DTS(18)=-0.0900116,
XUNIF_DTS(19)=0.560013,
XUNIF_DTS(20)=1.07999,
XUNIF_DTS(21)=1.79001,
XUNIF_DTS(22)=1.92000,
XUNIF_DTS(23)=2.32001,
XUNIF_DTS(24)=2.42999,
XUNIF_DTS(25)=1.98000/

&NAM_DATA_ISBA         NTIME = 1 ,
                       XUNIF_Z0(1,1)        = 0.001,
                       XUNIF_Z0(1,2)        = 0.001,
                       XUNIF_Z0(1,3)        = 0.001,
                       XUNIF_Z0(1,4)        = 0.001,
                       XUNIF_Z0(1,5)        = 0.001,
                       XUNIF_Z0(1,6)        = 0.001,
                       XUNIF_Z0(1,7)        = 0.001,
                       XUNIF_Z0(1,8)        = 0.001,
                       XUNIF_Z0(1,9)        = 0.001,
                       XUNIF_Z0(1,10)       = 0.001,
                       XUNIF_Z0(1,11)       = 0.001,
                       XUNIF_Z0(1,12)       = 0.001/

&NAM_ISBA              XUNIF_CLAY    = 1.          ,
                       XUNIF_SAND    = 0.         ,
	               XUNIF_RUNOFFB = 0.5           ,
                       CISBA         = '2-L'         ,
                       CPHOTO        = 'NON'         ,
                       NPATCH        = 1             ,
                       NGROUND_LAYER = 2        
/

&NAM_PREP_SURF_ATM NYEAR  = 2009,
                   NMONTH = 12,
                   NDAY   = 11,
                   XTIME  = 0. /
&NAM_PREP_ISBA           XHUG_SURF = 0.,
                         XHUG_ROOT = 0.,
                         XHUG_DEEP = 0.,
                   XTG_SURF=241.52,
                   XTG_ROOT=240.83,
                   XTG_DEEP=240.83,    
                   XHUGI_SURF=1.,
                   XHUGI_ROOT=1., 
                   XHUGI_DEEP=1.,
                   LISBA_CANOPY=.FALSE.,
                   NYEAR=2009,   
                   NMONTH=12,
                   NDAY=11,
                   XTIME=0.  /

&NAM_DEEPSOIL
      LPHYSDOMC = F ,
      LDEEPSOIL = F /

&NAM_ISBAn  LGLACIER=.TRUE./

ZHAT
0.0
2.0
4.0
6.0
8.0
10.0
12.0
14.0
16.0
18.0
20.0
22.0
24.0
26.0
28.0
30.0
32.0
34.0
36.0
38.0
40.0
42.0
44.0
46.0
48.0
50.0
52.0
54.0
56.0
58.0
60.0
62.0
64.0
66.0
68.0
70.0
72.0
74.0
76.0
78.0
80.0
82.0
84.0
86.0
88.0
90.0
92.0
94.0
96.0
98.0
100.0
102.0
104.0
106.0
108.0
110.0
112.0
114.0
116.0
118.0
120.0
122.0
124.0
126.0
128.0
130.0
132.0
134.0
136.0
138.0
140.0
142.0
144.0
146.0
148.0
150.0
152.0
154.0
156.0
158.0
160.0
162.0
164.0
166.0
168.0
170.0
172.0
174.0
176.0
178.0
180.0
182.0
184.0
186.0
188.0
190.0
192.0
194.0
196.0
198.0
200.0
202.0
204.0
206.0
208.0
210.0
212.0
214.0
216.0
218.0
220.0
222.0
224.0
226.0
228.0
230.0
232.0
234.0
236.0
238.0
240.0
242.0
244.0
246.0
248.0
250.0
252.0
254.0
256.0
258.0
260.0
262.0
264.0
266.0
268.0
270.0
272.0
274.0
276.0
278.0
280.0
282.0
284.0
286.0
288.0
290.0
292.0
294.0
296.0
298.0
300.0
302.0
304.0
306.0
308.0
310.0
312.0
314.0
316.0
318.0
320.0
322.0
324.0
326.0
328.0
330.0
332.0
334.0
336.0
338.0
340.0
342.0
344.0
346.0
348.0
350.0
352.0
354.0
356.0
358.0
360.0
362.0
364.0
366.0
368.0
370.0
372.0
374.0
376.0
378.0
380.0
382.0
384.0
386.0
388.0
390.0
392.0
394.0
396.0
398.0
400.0
402.2
 404.6
 407.3
 410.2
 413.4
 417.0
 420.9
 425.2
 429.9
 435.1
 440.8
 447.0
 453.9
 461.5
 469.9
 479.1
 489.2
 500.3
 512.5
 526.0
 540.8
 557.1
 575.0
 594.7
 616.4
 640.2
 666.4
 695.3
 727.0
 761.9
 800.3
 842.5
 889.0
 940.0
 996.3
1058.1

RSOU
2009 12 11 0.
'ZUVTHDMR'
0.
      65100.0
      271.306
        0.000
          89
    2.5   1.25   4.50
    7.5   1.25   4.50
   12.5   1.25   4.50
   17.5   1.25   4.50
   22.6   1.25   4.50
   27.7   1.25   4.50
   32.8   1.25   4.50
   38.1   1.25   4.50
   43.4   1.25   4.50
   48.9   1.25   4.50
   54.5   1.25   4.50
   60.4   1.25   4.50
   66.4   1.25   4.50
   72.7   1.25   4.50
   79.4   1.25   4.50
   86.4   1.25   4.50
   93.8   1.25   4.50
  101.7   1.25   4.50
  110.1   1.25   4.50
  119.0   1.25   4.50
  128.6   1.25   4.50
  138.9   1.25   4.50
  150.0   1.25   4.50
  161.9   1.25   4.50
  174.7   1.25   4.50
  188.5   1.25   4.50
  203.3   1.25   4.50
  219.3   1.25   4.50
  236.5   1.25   4.50
  255.0   1.25   4.50
  274.9   1.25   4.50
  296.2   1.25   4.50
  319.1   1.25   4.50
  343.7   1.25   4.50
  370.0   1.25   4.50
  398.1   1.25   4.50
  428.2   1.25   4.50
  460.4   1.25   4.50
  494.6   1.25   4.50
  531.2   1.25   4.50
  570.0   1.25   4.50
  611.4   1.25   4.50
  655.3   1.25   4.50
  701.8   1.27   4.70
  751.2   1.39   4.79
  803.4   1.53   4.89
  858.7   1.67   5.00
  917.0   1.81   5.11
  978.6   1.97   5.23
 1043.5   2.13   5.35
 1111.9   2.31   5.48
 1185.4   2.49   5.62
 1266.9   2.70   5.77
 1357.7   2.93   5.95
 1457.1   3.18   6.13
 1564.6   3.45   6.34
 1679.5   3.74   6.55
 1801.3   4.05   6.78
 1929.6   4.37   7.03
 2063.9   4.71   7.28
 2203.9   5.06   7.54
 2349.5   5.42   7.82
 2500.6   5.80   8.10
 2657.4   6.19   8.40
 2820.1   6.60   8.70
 2989.4   7.07   9.06
 3166.1   8.24  10.04
 3351.1   9.48  11.06
 3546.0  10.77  12.14
 3752.1  12.14  13.29
 3971.3  13.60  14.50
 4205.6  15.16  15.80
 4457.3  16.83  17.20
 4728.8  18.64  18.70
 5022.5  17.91  17.97
 5341.7  16.46  16.60
 5693.3  14.86  15.10
 6086.2  13.08  13.42
 6529.4  11.08  11.54
 7032.8   9.00   9.39
 7609.2   9.00   6.93
 8275.2   9.00   4.08
 9053.6   9.00   0.00
 9976.5   9.00   0.00
11091.4   9.00   0.00
12472.6   9.00   0.00
14225.6   9.00   0.00
16527.5   9.00   0.00
19589.0   9.00   0.00
          89
    2.5 271.31 0.000
    7.5 271.11 0.000
   12.5 271.77 0.000
   17.5 272.43 0.000
   22.6 273.10 0.000
   27.7 273.77 0.000
   32.8 274.44 0.000
   38.1 275.13 0.000
   43.4 275.36 0.000
   48.9 275.43 0.000
   54.5 275.49 0.000
   60.4 275.57 0.000
   66.4 275.64 0.000
   72.7 275.71 0.000
   79.4 275.79 0.000
   86.4 275.88 0.000
   93.8 275.96 0.000
  101.7 276.06 0.000
  110.1 276.16 0.000
  119.0 276.27 0.000
  128.6 276.38 0.000
  138.9 276.50 0.000
  150.0 276.64 0.000
  161.9 276.78 0.000
  174.7 276.93 0.000
  188.5 277.10 0.000
  203.3 277.28 0.000
  219.3 277.47 0.000
  236.5 277.67 0.000
  255.0 277.90 0.000
  274.9 278.14 0.000
  296.2 278.39 0.000
  319.1 278.57 0.000
  343.7 278.76 0.000
  370.0 278.96 0.000
  398.1 279.18 0.000
  428.2 279.41 0.000
  460.4 279.65 0.000
  494.6 279.92 0.000
  531.2 280.20 0.000
  570.0 280.50 0.000
  611.4 280.82 0.000
  655.3 281.15 0.000
  701.8 281.52 0.000
  751.2 281.90 0.000
  803.4 282.30 0.000
  858.7 282.73 0.000
  917.0 283.18 0.000
  978.6 283.67 0.000
 1043.5 284.17 0.000
 1111.9 284.71 0.000
 1185.4 285.29 0.000
 1266.9 285.93 0.000
 1357.7 286.65 0.000
 1457.1 287.45 0.000
 1564.6 288.08 0.000
 1679.5 288.66 0.000
 1801.3 289.29 0.000
 1929.6 289.96 0.000
 2063.9 290.66 0.000
 2203.9 291.39 0.000
 2349.5 292.16 0.000
 2500.6 292.97 0.000
 2657.4 293.81 0.000
 2820.1 294.69 0.000
 2989.4 295.62 0.000
 3166.1 296.59 0.000
 3351.1 297.62 0.000
 3546.0 298.64 0.000
 3752.1 299.61 0.000
 3971.3 300.64 0.000
 4205.6 301.76 0.000
 4457.3 302.97 0.000
 4728.8 304.29 0.000
 5022.5 305.74 0.000
 5341.7 307.32 0.000
 5693.3 311.78 0.000
 6086.2 318.87 0.000
 6529.4 327.02 0.000
 7032.8 336.48 0.000
 7609.2 347.59 0.000
 8275.2 360.77 0.000
 9053.6 376.67 0.000
 9976.5 396.23 0.000
11091.4 420.95 0.000
12472.6 453.36 0.000
14225.6 491.95 0.000
16527.5 543.81 0.000
19589.0 621.14 0.000
ZFRC
      25
2009 12 11 0.00000
    0.0
65100.0
271.306
0.00000
     89
    2.5   1.250   4.500 0.0 0.0 0.0  0.0000000  0.0000000000
    7.5   1.250   4.500 0.0 0.0 0.0  0.0000000  0.0000000000
   12.5   1.250   4.500 0.0 0.0 0.0  0.0000000  0.0000000000
   17.5   1.250   4.500 0.0 0.0 0.0  0.0000000  0.0000000000
   22.6   1.250   4.500 0.0 0.0 0.0  0.0000000  0.0000000000
   27.7   1.250   4.500 0.0 0.0 0.0  0.0000000  0.0000000000
   32.8   1.250   4.500 0.0 0.0 0.0  0.0000000  0.0000000000
   38.1   1.250   4.500 0.0 0.0 0.0  0.0000000  0.0000000000
   43.4   1.250   4.500 0.0 0.0 0.0  0.0000000  0.0000000000
   48.9   1.250   4.500 0.0 0.0 0.0  0.0000000  0.0000000000
   54.5   1.250   4.500 0.0 0.0 0.0  0.0000000  0.0000000000
   60.4   1.250   4.500 0.0 0.0 0.0  0.0000000  0.0000000000
   66.4   1.250   4.500 0.0 0.0 0.0  0.0000000  0.0000000000
   72.7   1.250   4.500 0.0 0.0 0.0  0.0000000  0.0000000000
   79.4   1.250   4.500 0.0 0.0 0.0  0.0000000  0.0000000000
   86.4   1.250   4.500 0.0 0.0 0.0  0.0000000  0.0000000000
   93.8   1.250   4.500 0.0 0.0 0.0  0.0000000  0.0000000000
  101.7   1.250   4.500 0.0 0.0 0.0  0.0000000  0.0000000000
  110.1   1.250   4.500 0.0 0.0 0.0  0.0000000  0.0000000000
  119.0   1.250   4.500 0.0 0.0 0.0  0.0000000  0.0000000000
  128.6   1.250   4.500 0.0 0.0 0.0  0.0000000  0.0000000000
  138.9   1.250   4.500 0.0 0.0 0.0  0.0000000  0.0000000000
  150.0   1.250   4.500 0.0 0.0 0.0  0.0000000  0.0000000000
  161.9   1.250   4.500 0.0 0.0 0.0  0.0000000  0.0000000000
  174.7   1.250   4.500 0.0 0.0 0.0  0.0000000  0.0000000000
  188.5   1.250   4.500 0.0 0.0 0.0  0.0000000  0.0000000000
  203.3   1.250   4.500 0.0 0.0 0.0  0.0000000  0.0000000000
  219.3   1.250   4.500 0.0 0.0 0.0  0.0000000  0.0000000000
  236.5   1.250   4.500 0.0 0.0 0.0  0.0000000  0.0000000000
  255.0   1.250   4.500 0.0 0.0 0.0  0.0000000  0.0000000000
  274.9   1.250   4.500 0.0 0.0 0.0  0.0000000  0.0000000000
  296.2   1.250   4.500 0.0 0.0 0.0  0.0000000  0.0000000000
  319.1   1.250   4.500 0.0 0.0 0.0  0.0000000  0.0000000000
  343.7   1.250   4.500 0.0 0.0 0.0  0.0000000  0.0000000000
  370.0   1.250   4.500 0.0 0.0 0.0  0.0000000  0.0000000000
  398.1   1.250   4.500 0.0 0.0 0.0  0.0000000  0.0000000000
  428.2   1.250   4.500 0.0 0.0 0.0  0.0000000  0.0000000000
  460.4   1.250   4.500 0.0 0.0 0.0  0.0000000  0.0000000000
  494.6   1.250   4.500 0.0 0.0 0.0  0.0000000  0.0000000000
  531.2   1.250   4.500 0.0 0.0 0.0  0.0000000  0.0000000000
  570.0   1.250   4.500 0.0 0.0 0.0  0.0000000  0.0000000000
  611.4   1.250   4.500 0.0 0.0 0.0  0.0000000  0.0000000000
  655.3   1.250   4.500 0.0 0.0 0.0  0.0000000  0.0000000000
  701.8   1.268   4.701 0.0 0.0 0.0  0.0000000  0.0000000000
  751.2   1.393   4.795 0.0 0.0 0.0  0.0000000  0.0000000000
  803.4   1.525   4.894 0.0 0.0 0.0  0.0000000  0.0000000000
  858.7   1.665   4.999 0.0 0.0 0.0  0.0000000  0.0000000000
  917.0   1.813   5.110 0.0 0.0 0.0  0.0000000  0.0000000000
  978.6   1.969   5.227 0.0 0.0 0.0  0.0000000  0.0000000000
 1043.5   2.134   5.350 0.0 0.0 0.0  0.0000000  0.0000000000
 1111.9   2.307   5.480 0.0 0.0 0.0  0.0000000  0.0000000000
 1185.4   2.493   5.619 0.0 0.0 0.0  0.0000000  0.0000000000
 1266.9   2.699   5.774 0.0 0.0 0.0  0.0000000  0.0000000000
 1357.7   2.928   5.946 0.0 0.0 0.0  0.0000000  0.0000000000
 1457.1   3.179   6.134 0.0 0.0 0.0  0.0000000  0.0000000000
 1564.6   3.450   6.337 0.0 0.0 0.0  0.0000000  0.0000000000
 1679.5   3.739   6.554 0.0 0.0 0.0  0.0000000  0.0000000000
 1801.3   4.045   6.784 0.0 0.0 0.0  0.0000000  0.0000000000
 1929.6   4.368   7.026 0.0 0.0 0.0  0.0000000  0.0000000000
 2063.9   4.706   7.279 0.0 0.0 0.0  0.0000000  0.0000000000
 2203.9   5.057   7.543 0.0 0.0 0.0  0.0000000  0.0000000000
 2349.5   5.423   7.817 0.0 0.0 0.0  0.0000000  0.0000000000
 2500.6   5.802   8.101 0.0 0.0 0.0  0.0000000  0.0000000000
 2657.4   6.194   8.396 0.0 0.0 0.0  0.0000000  0.0000000000
 2820.1   6.602   8.701 0.0 0.0 0.0  0.0000000  0.0000000000
 2989.4   7.067   9.056 0.0 0.0 0.0  0.0000000  0.0000000000
 3166.1   8.244  10.037 0.0 0.0 0.0  0.0000000  0.0000000000
 3351.1   9.477  11.064 0.0 0.0 0.0  0.0000000  0.0000000000
 3546.0  10.773  12.144 0.0 0.0 0.0  0.0000000  0.0000000000
 3752.1  12.144  13.287 0.0 0.0 0.0  0.0000000  0.0000000000
 3971.3  13.602  14.502 0.0 0.0 0.0  0.0000000  0.0000000000
 4205.6  15.161  15.801 0.0 0.0 0.0  0.0000000  0.0000000000
 4457.3  16.835  17.196 0.0 0.0 0.0  0.0000000  0.0000000000
 4728.8  18.640  18.700 0.0 0.0 0.0  0.0000000  0.0000000000
 5022.5  17.912  17.974 0.0 0.0 0.0  0.0000000  0.0000000000
 5341.7  16.460  16.605 0.0 0.0 0.0  0.0000000  0.0000000000
 5693.3  14.861  15.098 0.0 0.0 0.0  0.0000000  0.0000000000
 6086.2  13.084  13.422 0.0 0.0 0.0  0.0000000  0.0000000000
 6529.4  11.084  11.536 0.0 0.0 0.0  0.0000000  0.0000000000
 7032.8   9.000   9.390 0.0 0.0 0.0  0.0000000  0.0000000000
 7609.2   9.000   6.927 0.0 0.0 0.0  0.0000000  0.0000000000
 8275.2   9.000   4.084 0.0 0.0 0.0  0.0000000  0.0000000000
 9053.6   9.000   0.000 0.0 0.0 0.0  0.0000000  0.0000000000
 9976.5   9.000   0.000 0.0 0.0 0.0  0.0000000  0.0000000000
11091.4   9.000   0.000 0.0 0.0 0.0  0.0000000  0.0000000000
12472.6   9.000   0.000 0.0 0.0 0.0  0.0000000  0.0000000000
14225.6   9.000   0.000 0.0 0.0 0.0  0.0000000  0.0000000000
16527.5   9.000   0.000 0.0 0.0 0.0  0.0000000  0.0000000000
19589.0   9.000   0.000 0.0 0.0 0.0  0.0000000  0.0000000000
2009 12 11 3600.00
    0
65100.0
271.31
0.00000
    89
    2.5   1.250   4.500 0.0 0.0 0.0  0.0000000  0.0000000000
    7.5   1.250   4.500 0.0 0.0 0.0  0.0000000  0.0000000000
   12.5   1.250   4.500 0.0 0.0 0.0  0.0000000  0.0000000000
   17.5   1.250   4.500 0.0 0.0 0.0  0.0000000  0.0000000000
   22.6   1.250   4.500 0.0 0.0 0.0  0.0000000  0.0000000000
   27.7   1.250   4.500 0.0 0.0 0.0  0.0000000  0.0000000000
   32.8   1.250   4.500 0.0 0.0 0.0  0.0000000  0.0000000000
   38.1   1.250   4.500 0.0 0.0 0.0  0.0000000  0.0000000000
   43.4   1.250   4.500 0.0 0.0 0.0  0.0000000  0.0000000000
   48.9   1.250   4.500 0.0 0.0 0.0  0.0000000  0.0000000000
   54.5   1.250   4.500 0.0 0.0 0.0  0.0000000  0.0000000000
   60.4   1.250   4.500 0.0 0.0 0.0  0.0000000  0.0000000000
   66.4   1.250   4.500 0.0 0.0 0.0  0.0000000  0.0000000000
   72.7   1.250   4.500 0.0 0.0 0.0  0.0000000  0.0000000000
   79.4   1.250   4.500 0.0 0.0 0.0  0.0000000  0.0000000000
   86.4   1.250   4.500 0.0 0.0 0.0  0.0000000  0.0000000000
   93.8   1.250   4.500 0.0 0.0 0.0  0.0000000  0.0000000000
  101.7   1.250   4.500 0.0 0.0 0.0  0.0000000  0.0000000000
  110.1   1.250   4.500 0.0 0.0 0.0  0.0000000  0.0000000000
  119.0   1.250   4.500 0.0 0.0 0.0  0.0000000  0.0000000000
  128.6   1.250   4.500 0.0 0.0 0.0  0.0000000  0.0000000000
  138.9   1.250   4.500 0.0 0.0 0.0  0.0000000  0.0000000000
  150.0   1.250   4.500 0.0 0.0 0.0  0.0000000  0.0000000000
  161.9   1.250   4.500 0.0 0.0 0.0  0.0000000  0.0000000000
  174.7   1.250   4.500 0.0 0.0 0.0  0.0000000  0.0000000000
  188.5   1.250   4.500 0.0 0.0 0.0  0.0000000  0.0000000000
  203.3   1.250   4.500 0.0 0.0 0.0  0.0000000  0.0000000000
  219.3   1.250   4.500 0.0 0.0 0.0  0.0000000  0.0000000000
  236.5   1.250   4.500 0.0 0.0 0.0  0.0000000  0.0000000000
  255.0   1.250   4.500 0.0 0.0 0.0  0.0000000  0.0000000000
  274.9   1.250   4.500 0.0 0.0 0.0  0.0000000  0.0000000000
  296.2   1.250   4.500 0.0 0.0 0.0  0.0000000  0.0000000000
  319.1   1.250   4.500 0.0 0.0 0.0  0.0000000  0.0000000000
  343.7   1.250   4.500 0.0 0.0 0.0  0.0000000  0.0000000000
  370.0   1.250   4.500 0.0 0.0 0.0  0.0000000  0.0000000000
  398.1   1.250   4.500 0.0 0.0 0.0  0.0000000  0.0000000000
  428.2   1.250   4.500 0.0 0.0 0.0  0.0000000  0.0000000000
  460.4   1.250   4.500 0.0 0.0 0.0  0.0000000  0.0000000000
  494.6   1.250   4.500 0.0 0.0 0.0  0.0000000  0.0000000000
  531.2   1.250   4.500 0.0 0.0 0.0  0.0000000  0.0000000000
  570.0   1.250   4.500 0.0 0.0 0.0  0.0000000  0.0000000000
  611.4   1.250   4.500 0.0 0.0 0.0  0.0000000  0.0000000000
  655.3   1.250   4.500 0.0 0.0 0.0  0.0000000  0.0000000000
  701.8   1.268   4.701 0.0 0.0 0.0  0.0000000  0.0000000000
  751.2   1.393   4.795 0.0 0.0 0.0  0.0000000  0.0000000000
  803.4   1.525   4.894 0.0 0.0 0.0  0.0000000  0.0000000000
  858.7   1.665   4.999 0.0 0.0 0.0  0.0000000  0.0000000000
  917.0   1.813   5.110 0.0 0.0 0.0  0.0000000  0.0000000000
  978.6   1.969   5.227 0.0 0.0 0.0  0.0000000  0.0000000000
 1043.5   2.134   5.350 0.0 0.0 0.0  0.0000000  0.0000000000
 1111.9   2.307   5.480 0.0 0.0 0.0  0.0000000  0.0000000000
 1185.4   2.493   5.619 0.0 0.0 0.0  0.0000000  0.0000000000
 1266.9   2.699   5.774 0.0 0.0 0.0  0.0000000  0.0000000000
 1357.7   2.928   5.946 0.0 0.0 0.0  0.0000000  0.0000000000
 1457.1   3.179   6.134 0.0 0.0 0.0  0.0000000  0.0000000000
 1564.6   3.450   6.337 0.0 0.0 0.0  0.0000000  0.0000000000
 1679.5   3.739   6.554 0.0 0.0 0.0  0.0000000  0.0000000000
 1801.3   4.045   6.784 0.0 0.0 0.0  0.0000000  0.0000000000
 1929.6   4.368   7.026 0.0 0.0 0.0  0.0000000  0.0000000000
 2063.9   4.706   7.279 0.0 0.0 0.0  0.0000000  0.0000000000
 2203.9   5.057   7.543 0.0 0.0 0.0  0.0000000  0.0000000000
 2349.5   5.423   7.817 0.0 0.0 0.0  0.0000000  0.0000000000
 2500.6   5.802   8.101 0.0 0.0 0.0  0.0000000  0.0000000000
 2657.4   6.194   8.396 0.0 0.0 0.0  0.0000000  0.0000000000
 2820.1   6.602   8.701 0.0 0.0 0.0  0.0000000  0.0000000000
 2989.4   7.067   9.056 0.0 0.0 0.0  0.0000000  0.0000000000
 3166.1   8.244  10.037 0.0 0.0 0.0  0.0000000  0.0000000000
 3351.1   9.477  11.064 0.0 0.0 0.0  0.0000000  0.0000000000
 3546.0  10.773  12.144 0.0 0.0 0.0  0.0000000  0.0000000000
 3752.1  12.144  13.287 0.0 0.0 0.0  0.0000000  0.0000000000
 3971.3  13.602  14.502 0.0 0.0 0.0  0.0000000  0.0000000000
 4205.6  15.161  15.801 0.0 0.0 0.0  0.0000000  0.0000000000
 4457.3  16.835  17.196 0.0 0.0 0.0  0.0000000  0.0000000000
 4728.8  18.640  18.700 0.0 0.0 0.0  0.0000000  0.0000000000
 5022.5  17.912  17.974 0.0 0.0 0.0  0.0000000  0.0000000000
 5341.7  16.460  16.605 0.0 0.0 0.0  0.0000000  0.0000000000
 5693.3  14.861  15.098 0.0 0.0 0.0  0.0000000  0.0000000000
 6086.2  13.084  13.422 0.0 0.0 0.0  0.0000000  0.0000000000
 6529.4  11.084  11.536 0.0 0.0 0.0  0.0000000  0.0000000000
 7032.8   9.000   9.390 0.0 0.0 0.0  0.0000000  0.0000000000
 7609.2   9.000   6.927 0.0 0.0 0.0  0.0000000  0.0000000000
 8275.2   9.000   4.084 0.0 0.0 0.0  0.0000000  0.0000000000
 9053.6   9.000   0.000 0.0 0.0 0.0  0.0000000  0.0000000000
 9976.5   9.000   0.000 0.0 0.0 0.0  0.0000000  0.0000000000
11091.4   9.000   0.000 0.0 0.0 0.0  0.0000000  0.0000000000
12472.6   9.000   0.000 0.0 0.0 0.0  0.0000000  0.0000000000
14225.6   9.000   0.000 0.0 0.0 0.0  0.0000000  0.0000000000
16527.5   9.000   0.000 0.0 0.0 0.0  0.0000000  0.0000000000
19589.0   9.000   0.000 0.0 0.0 0.0  0.0000000  0.0000000000
2009 12 11 7200.00
    0
65100.0
277.1
0.00000
     89
    2.5   1.250   4.500 0.0 0.0 0.0  0.0000000  0.0000000000
    7.5   1.250   4.500 0.0 0.0 0.0  0.0000000  0.0000000000
   12.5   1.250   4.500 0.0 0.0 0.0  0.0000000  0.0000000000
   17.5   1.250   4.500 0.0 0.0 0.0  0.0000000  0.0000000000
   22.6   1.250   4.500 0.0 0.0 0.0  0.0000000  0.0000000000
   27.7   1.250   4.500 0.0 0.0 0.0  0.0000000  0.0000000000
   32.8   1.250   4.500 0.0 0.0 0.0  0.0000000  0.0000000000
   38.1   1.250   4.500 0.0 0.0 0.0  0.0000000  0.0000000000
   43.4   1.250   4.500 0.0 0.0 0.0  0.0000000  0.0000000000
   48.9   1.250   4.500 0.0 0.0 0.0  0.0000000  0.0000000000
   54.5   1.250   4.500 0.0 0.0 0.0  0.0000000  0.0000000000
   60.4   1.250   4.500 0.0 0.0 0.0  0.0000000  0.0000000000
   66.4   1.250   4.500 0.0 0.0 0.0  0.0000000  0.0000000000
   72.7   1.250   4.500 0.0 0.0 0.0  0.0000000  0.0000000000
   79.4   1.250   4.500 0.0 0.0 0.0  0.0000000  0.0000000000
   86.4   1.250   4.500 0.0 0.0 0.0  0.0000000  0.0000000000
   93.8   1.250   4.500 0.0 0.0 0.0  0.0000000  0.0000000000
  101.7   1.250   4.500 0.0 0.0 0.0  0.0000000  0.0000000000
  110.1   1.250   4.500 0.0 0.0 0.0  0.0000000  0.0000000000
  119.0   1.250   4.500 0.0 0.0 0.0  0.0000000  0.0000000000
  128.6   1.250   4.500 0.0 0.0 0.0  0.0000000  0.0000000000
  138.9   1.250   4.500 0.0 0.0 0.0  0.0000000  0.0000000000
  150.0   1.250   4.500 0.0 0.0 0.0  0.0000000  0.0000000000
  161.9   1.250   4.500 0.0 0.0 0.0  0.0000000  0.0000000000
  174.7   1.250   4.500 0.0 0.0 0.0  0.0000000  0.0000000000
  188.5   1.250   4.500 0.0 0.0 0.0  0.0000000  0.0000000000
  203.3   1.250   4.500 0.0 0.0 0.0  0.0000000  0.0000000000
  219.3   1.250   4.500 0.0 0.0 0.0  0.0000000  0.0000000000
  236.5   1.250   4.500 0.0 0.0 0.0  0.0000000  0.0000000000
  255.0   1.250   4.500 0.0 0.0 0.0  0.0000000  0.0000000000
  274.9   1.250   4.500 0.0 0.0 0.0  0.0000000  0.0000000000
  296.2   1.250   4.500 0.0 0.0 0.0  0.0000000  0.0000000000
  319.1   1.250   4.500 0.0 0.0 0.0  0.0000000  0.0000000000
  343.7   1.250   4.500 0.0 0.0 0.0  0.0000000  0.0000000000
  370.0   1.250   4.500 0.0 0.0 0.0  0.0000000  0.0000000000
  398.1   1.250   4.500 0.0 0.0 0.0  0.0000000  0.0000000000
  428.2   1.250   4.500 0.0 0.0 0.0  0.0000000  0.0000000000
  460.4   1.250   4.500 0.0 0.0 0.0  0.0000000  0.0000000000
  494.6   1.250   4.500 0.0 0.0 0.0  0.0000000  0.0000000000
  531.2   1.250   4.500 0.0 0.0 0.0  0.0000000  0.0000000000
  570.0   1.250   4.500 0.0 0.0 0.0  0.0000000  0.0000000000
  611.4   1.250   4.500 0.0 0.0 0.0  0.0000000  0.0000000000
  655.3   1.250   4.500 0.0 0.0 0.0  0.0000000  0.0000000000
  701.8   1.268   4.701 0.0 0.0 0.0  0.0000000  0.0000000000
  751.2   1.393   4.795 0.0 0.0 0.0  0.0000000  0.0000000000
  803.4   1.525   4.894 0.0 0.0 0.0  0.0000000  0.0000000000
  858.7   1.665   4.999 0.0 0.0 0.0  0.0000000  0.0000000000
  917.0   1.813   5.110 0.0 0.0 0.0  0.0000000  0.0000000000
  978.6   1.969   5.227 0.0 0.0 0.0  0.0000000  0.0000000000
 1043.5   2.134   5.350 0.0 0.0 0.0  0.0000000  0.0000000000
 1111.9   2.307   5.480 0.0 0.0 0.0  0.0000000  0.0000000000
 1185.4   2.493   5.619 0.0 0.0 0.0  0.0000000  0.0000000000
 1266.9   2.699   5.774 0.0 0.0 0.0  0.0000000  0.0000000000
 1357.7   2.928   5.946 0.0 0.0 0.0  0.0000000  0.0000000000
 1457.1   3.179   6.134 0.0 0.0 0.0  0.0000000  0.0000000000
 1564.6   3.450   6.337 0.0 0.0 0.0  0.0000000  0.0000000000
 1679.5   3.739   6.554 0.0 0.0 0.0  0.0000000  0.0000000000
 1801.3   4.045   6.784 0.0 0.0 0.0  0.0000000  0.0000000000
 1929.6   4.368   7.026 0.0 0.0 0.0  0.0000000  0.0000000000
 2063.9   4.706   7.279 0.0 0.0 0.0  0.0000000  0.0000000000
 2203.9   5.057   7.543 0.0 0.0 0.0  0.0000000  0.0000000000
 2349.5   5.423   7.817 0.0 0.0 0.0  0.0000000  0.0000000000
 2500.6   5.802   8.101 0.0 0.0 0.0  0.0000000  0.0000000000
 2657.4   6.194   8.396 0.0 0.0 0.0  0.0000000  0.0000000000
 2820.1   6.602   8.701 0.0 0.0 0.0  0.0000000  0.0000000000
 2989.4   7.067   9.056 0.0 0.0 0.0  0.0000000  0.0000000000
 3166.1   8.244  10.037 0.0 0.0 0.0  0.0000000  0.0000000000
 3351.1   9.477  11.064 0.0 0.0 0.0  0.0000000  0.0000000000
 3546.0  10.773  12.144 0.0 0.0 0.0  0.0000000  0.0000000000
 3752.1  12.144  13.287 0.0 0.0 0.0  0.0000000  0.0000000000
 3971.3  13.602  14.502 0.0 0.0 0.0  0.0000000  0.0000000000
 4205.6  15.161  15.801 0.0 0.0 0.0  0.0000000  0.0000000000
 4457.3  16.835  17.196 0.0 0.0 0.0  0.0000000  0.0000000000
 4728.8  18.640  18.700 0.0 0.0 0.0  0.0000000  0.0000000000
 5022.5  17.912  17.974 0.0 0.0 0.0  0.0000000  0.0000000000
 5341.7  16.460  16.605 0.0 0.0 0.0  0.0000000  0.0000000000
 5693.3  14.861  15.098 0.0 0.0 0.0  0.0000000  0.0000000000
 6086.2  13.084  13.422 0.0 0.0 0.0  0.0000000  0.0000000000
 6529.4  11.084  11.536 0.0 0.0 0.0  0.0000000  0.0000000000
 7032.8   9.000   9.390 0.0 0.0 0.0  0.0000000  0.0000000000
 7609.2   9.000   6.927 0.0 0.0 0.0  0.0000000  0.0000000000
 8275.2   9.000   4.084 0.0 0.0 0.0  0.0000000  0.0000000000
 9053.6   9.000   0.000 0.0 0.0 0.0  0.0000000  0.0000000000
 9976.5   9.000   0.000 0.0 0.0 0.0  0.0000000  0.0000000000
11091.4   9.000   0.000 0.0 0.0 0.0  0.0000000  0.0000000000
12472.6   9.000   0.000 0.0 0.0 0.0  0.0000000  0.0000000000
14225.6   9.000   0.000 0.0 0.0 0.0  0.0000000  0.0000000000
16527.5   9.000   0.000 0.0 0.0 0.0  0.0000000  0.0000000000
19589.0   9.000   0.000 0.0 0.0 0.0  0.0000000  0.0000000000
2009 12 11 10800.0
    0
65100.0
278.7
0.00000
     89
    2.5   1.250   4.500 0.0 0.0 0.0  0.0000000  0.0000000000
    7.5   1.250   4.500 0.0 0.0 0.0  0.0000000  0.0000000000
   12.5   1.250   4.500 0.0 0.0 0.0  0.0000000  0.0000000000
   17.5   1.250   4.500 0.0 0.0 0.0  0.0000000  0.0000000000
   22.6   1.250   4.500 0.0 0.0 0.0  0.0000000  0.0000000000
   27.7   1.250   4.500 0.0 0.0 0.0  0.0000000  0.0000000000
   32.8   1.250   4.500 0.0 0.0 0.0  0.0000000  0.0000000000
   38.1   1.250   4.500 0.0 0.0 0.0  0.0000000  0.0000000000
   43.4   1.250   4.500 0.0 0.0 0.0  0.0000000  0.0000000000
   48.9   1.250   4.500 0.0 0.0 0.0  0.0000000  0.0000000000
   54.5   1.250   4.500 0.0 0.0 0.0  0.0000000  0.0000000000
   60.4   1.250   4.500 0.0 0.0 0.0  0.0000000  0.0000000000
   66.4   1.250   4.500 0.0 0.0 0.0  0.0000000  0.0000000000
   72.7   1.250   4.500 0.0 0.0 0.0  0.0000000  0.0000000000
   79.4   1.250   4.500 0.0 0.0 0.0  0.0000000  0.0000000000
   86.4   1.250   4.500 0.0 0.0 0.0  0.0000000  0.0000000000
   93.8   1.250   4.500 0.0 0.0 0.0  0.0000000  0.0000000000
  101.7   1.250   4.500 0.0 0.0 0.0  0.0000000  0.0000000000
  110.1   1.250   4.500 0.0 0.0 0.0  0.0000000  0.0000000000
  119.0   1.250   4.500 0.0 0.0 0.0  0.0000000  0.0000000000
  128.6   1.250   4.500 0.0 0.0 0.0  0.0000000  0.0000000000
  138.9   1.250   4.500 0.0 0.0 0.0  0.0000000  0.0000000000
  150.0   1.250   4.500 0.0 0.0 0.0  0.0000000  0.0000000000
  161.9   1.250   4.500 0.0 0.0 0.0  0.0000000  0.0000000000
  174.7   1.250   4.500 0.0 0.0 0.0  0.0000000  0.0000000000
  188.5   1.250   4.500 0.0 0.0 0.0  0.0000000  0.0000000000
  203.3   1.250   4.500 0.0 0.0 0.0  0.0000000  0.0000000000
  219.3   1.250   4.500 0.0 0.0 0.0  0.0000000  0.0000000000
  236.5   1.250   4.500 0.0 0.0 0.0  0.0000000  0.0000000000
  255.0   1.250   4.500 0.0 0.0 0.0  0.0000000  0.0000000000
  274.9   1.250   4.500 0.0 0.0 0.0  0.0000000  0.0000000000
  296.2   1.250   4.500 0.0 0.0 0.0  0.0000000  0.0000000000
  319.1   1.250   4.500 0.0 0.0 0.0  0.0000000  0.0000000000
  343.7   1.250   4.500 0.0 0.0 0.0  0.0000000  0.0000000000
  370.0   1.250   4.500 0.0 0.0 0.0  0.0000000  0.0000000000
  398.1   1.250   4.500 0.0 0.0 0.0  0.0000000  0.0000000000
  428.2   1.250   4.500 0.0 0.0 0.0  0.0000000  0.0000000000
  460.4   1.250   4.500 0.0 0.0 0.0  0.0000000  0.0000000000
  494.6   1.250   4.500 0.0 0.0 0.0  0.0000000  0.0000000000
  531.2   1.250   4.500 0.0 0.0 0.0  0.0000000  0.0000000000
  570.0   1.250   4.500 0.0 0.0 0.0  0.0000000  0.0000000000
  611.4   1.250   4.500 0.0 0.0 0.0  0.0000000  0.0000000000
  655.3   1.250   4.500 0.0 0.0 0.0  0.0000000  0.0000000000
  701.8   1.268   4.701 0.0 0.0 0.0  0.0000000  0.0000000000
  751.2   1.393   4.795 0.0 0.0 0.0  0.0000000  0.0000000000
  803.4   1.525   4.894 0.0 0.0 0.0  0.0000000  0.0000000000
  858.7   1.665   4.999 0.0 0.0 0.0  0.0000000  0.0000000000
  917.0   1.813   5.110 0.0 0.0 0.0  0.0000000  0.0000000000
  978.6   1.969   5.227 0.0 0.0 0.0  0.0000000  0.0000000000
 1043.5   2.134   5.350 0.0 0.0 0.0  0.0000000  0.0000000000
 1111.9   2.307   5.480 0.0 0.0 0.0  0.0000000  0.0000000000
 1185.4   2.493   5.619 0.0 0.0 0.0  0.0000000  0.0000000000
 1266.9   2.699   5.774 0.0 0.0 0.0  0.0000000  0.0000000000
 1357.7   2.928   5.946 0.0 0.0 0.0  0.0000000  0.0000000000
 1457.1   3.179   6.134 0.0 0.0 0.0  0.0000000  0.0000000000
 1564.6   3.450   6.337 0.0 0.0 0.0  0.0000000  0.0000000000
 1679.5   3.739   6.554 0.0 0.0 0.0  0.0000000  0.0000000000
 1801.3   4.045   6.784 0.0 0.0 0.0  0.0000000  0.0000000000
 1929.6   4.368   7.026 0.0 0.0 0.0  0.0000000  0.0000000000
 2063.9   4.706   7.279 0.0 0.0 0.0  0.0000000  0.0000000000
 2203.9   5.057   7.543 0.0 0.0 0.0  0.0000000  0.0000000000
 2349.5   5.423   7.817 0.0 0.0 0.0  0.0000000  0.0000000000
 2500.6   5.802   8.101 0.0 0.0 0.0  0.0000000  0.0000000000
 2657.4   6.194   8.396 0.0 0.0 0.0  0.0000000  0.0000000000
 2820.1   6.602   8.701 0.0 0.0 0.0  0.0000000  0.0000000000
 2989.4   7.067   9.056 0.0 0.0 0.0  0.0000000  0.0000000000