&NACIETEO
/
&NACOBS
/
&NACTAN
/
&NACTEX
/
&NACVEG
/
&NADOCK
/
&NAEAEM7
/
&NAEAER
/
&NAECOAPHY
/
&NAEPHLI
/
&NAEPHY
/
&NAERAD
  LHGHG=.TRUE.,
  LRRTM=.TRUE.,
  LSRTM=.TRUE.,
  LUSEPRE2017RAD=.FALSE.,
  NHINCSOL=0,
  NMCICA=1,
  NOVLP=1,
  NRADFR=-1,
  NRADIP=2,
  NRADLP=2,
  NSW=6,
  RLWINHF=0.9,
  STBKG=0.045,
  TRBKG=0.03,
/
&NAERCLI
/
&NAETLDIAG
/
&NAEVOL
/
&NAIMPO
/
&NALORI
/
&NAMACV
/
&NAMAERDET
/
&NAMAFN
/
&NAMARG
  LECMWF=.FALSE.,
  LELAM=.FALSE.,
  LSLAG=.TRUE.,
  NCONF=1,
  NSUPERSEDE=1,
/
&NAMARPHY
  CCOUPLING='I',
  LMSE=.TRUE.,
/
&NAMCA
/
&NAMCAPE
/
&NAMCFU
/
&NAMCHEM
/
&NAMCHET
/
&NAMCHK
/
&NAMCLA
/
&NAMCLDP
/
&NAMCLI
/
&NAMCLOP15
/
&NAMCLTC
/
&NAMCMEM_MW
/
&NAMCOK
/
&NAMCOM
/
&NAMCOMPO
/
&NAMCOSJO
/
&NAMCOUPLO4
/
&NAMCT0
  LCONSERV=.TRUE.,
  LCORWAT=.TRUE.,
  LFBDAP=.FALSE.,
  LFDBOP=.FALSE.,
  LGRIB_API=.FALSE.,
  LREGETA=.FALSE.,
  LSPRT=.TRUE.,
  LTWOTL=.TRUE.,
  NFPOS=1,
  NFRCORM=1,
  NFRGDI=1,
  NFRHIS=1,
  NFRPOS=1,
  NFRSDI=1,
  NFRSFXHIS=24,
  NHISTS(0)=0,
  NPOSTS(0)=0,
  NSFXHISTS(0)=0,  
  NSPPR=0,
/
&NAMCT1
  LRFILAF=.FALSE.,
  N1POS=1,
  N1RES=1,
  N1SFXHIS=1,
/
&NAMCUMF
  DETRPEN=0.0001,
  RCAPQADV=0.,
  RDXMAX=1.5,
  RDXMIN=1.,
  RMFDEPS=0.1,
  RPRCON=0.0025,
/
&NAMCUMFS
/
&NAMCVER
  LVERTFE=.TRUE.,
  NVFE_TYPE=3,
/
&NAMCVMNH
  LSMOOTH=.FALSE.,
  OTADJS=10800.,
  XATPERT=500.,
  XAW=1.,
  XBTPERT=0.5,
  XBW=0.5,
  XCDEPTH=1.,
  XCDEPTH_D=4000.,
  XDTPERT=0.3,
  XENTR=0.01,
/
&NAMDDH
/
&NAMDFI
/
&NAMDIM
  NPROMA=-16,
/
&NAMDIMO
/
&NAMDIM_TRAJ
/
&NAMDPHY
  NTOZ2D=0,
  NTOZ3D=0,
  NVCLIS=0,  
/
&NAMDPRECIPS
/
&NAMDVISI
/
&NAMDYN
  LADVF=.TRUE.,
  NITMP=4,
  NTLAG=3,
  NVLAG=3,
  NWLAG=3,
  RATIO_HDI_TOP=20.,
  RCMSLP0=1.,
  RDAMPDIV=4.,
  RDAMPQ=0.,
  RDAMPT=0.,
  RDAMPVOR=50.,
  REPS1=0.,
  REPS2=0.,
  REPSM1=0.,
  REPSM2=0.,
  REPSP1=0.,
  RW2TLFF=1.,
  SIPR=100000.,
  SITR=350.,
  SLEVDH1=0.15,
  SLEVDH2=0.08,
  VESL=0.,
  XIDT=0.,
/
&NAMDYNA
  LAPRXPK=.TRUE.,
  LRHSVWENO=.TRUE.,
  LSETTLS=.TRUE.,
  LSETTLST=.TRUE.,
  LSETTLSV=.TRUE.,
  NDLNPR=0,
/
&NAMDYNCORE
/
&NAMEMIS_CONF
/
&NAMENKF
/
&NAMFA
  CMODEL='OUTPUTID',
  LEXTERN=.TRUE.,
  LSUPPDATE=.FALSE.,
  NBITCS=-1,
  NBITPG=-1,
  NSTRON=-1,
  NVGRIB=123,
  YFACLF%NBITS=6,
  YFAI%NBITS=8,
  YFAIRAD%NBITS=12,
  YFAL%NBITS=8,
  YFALRAD%NBITS=12,
  YFAR%NBITS=8,
  YFAS%NBITS=8,
  YFATKE%NBITS=16,
  YFA_MXCLWC%CLNAME='CLD_WX_60M',
  YFA_MXCLWC2%CLNAME='CLD_WX_180M',
  YFA_VISICLD%CLNAME='CLSVISIN_60',
  YFA_VISICLD2%CLNAME='CLSVISIN_180',
  YFA_VISIHYD%CLNAME='CLSVISIHYDN60',
  YFA_VISIHYD2%CLNAME='CLSVISIHYDN180',
  YFA_XPTYPE%CLNAME='CLSPTYPE_60M',
  YFA_XPTYPE2%CLNAME='CLSPTYPE_180M',
  YFA_XPTYPESEV%CLNAME='CLSPTYPESEV_60M',
  YFA_XPTYPESEV2%CLNAME='CLSPTYPESEV_180M',
  YFA_XSIC%CLNAME='SEA.ICE.COVER   ',
  YFA_XUGST%CLNAME='CLSU.RAF60M.XFU',
  YFA_XUGST2%CLNAME='CLSU.RAF180M.XFU',
  YFA_XVGST%CLNAME='CLSV.RAF60M.XFU',
  YFA_XVGST2%CLNAME='CLSV.RAF180M.XFU',
/
&NAMFAINIT
/
&NAMFPC
/
&NAMFPD
/
&NAMFPDY2
/
&NAMFPDYF
/
&NAMFPDYH
/
&NAMFPDYI
/
&NAMFPDYP
/
&NAMFPDYS
/
&NAMFPDYT
/
&NAMFPDYV
/
&NAMFPF
/
&NAMFPG
/
&NAMFPIOS
/
&NAMFPMOVE
/
&NAMFPPHY
/
&NAMFPSC2
/
&NAMFPSC2_DEP
/
&NAMGEM
/
&NAMGFL
  YA_NL%LGP=.TRUE.,
  YA_NL%LREQOUT=.TRUE.,
  YA_NL%NREQIN=0,
  YIRAD_NL%LGP=.TRUE.,
  YIRAD_NL%LREQOUT=.TRUE.,
  YIRAD_NL%NREQIN=0,
  YI_NL%LADV=.TRUE.,
  YI_NL%LGP=.TRUE.,
  YI_NL%LGPINGP=.TRUE.,
  YI_NL%LPHY=.FALSE.,
  YI_NL%LQM=.TRUE.,
  YI_NL%LREQOUT=.TRUE.,
  YI_NL%LT1=.TRUE.,
  YI_NL%NREQIN=1,
  YLRAD_NL%LGP=.TRUE.,
  YLRAD_NL%LREQOUT=.TRUE.,
  YLRAD_NL%NREQIN=0,
  YL_NL%LADV=.TRUE.,
  YL_NL%LGP=.TRUE.,
  YL_NL%LGPINGP=.TRUE.,
  YL_NL%LPHY=.FALSE.,
  YL_NL%LQM=.TRUE.,
  YL_NL%LREQOUT=.TRUE.,
  YL_NL%LT1=.TRUE.,
  YL_NL%NREQIN=1,
!  YQ_NL%LVWENO=.TRUE.,
  YR_NL%LADV=.TRUE.,
  YR_NL%LGP=.TRUE.,
  YR_NL%LGPINGP=.TRUE.,
  YR_NL%LPHY=.FALSE.,
  YR_NL%LQM=.TRUE.,
  YR_NL%LREQOUT=.TRUE.,
  YR_NL%LT1=.TRUE.,
  YR_NL%NREQIN=1,
  YS_NL%LADV=.TRUE.,
  YS_NL%LGP=.TRUE.,
  YS_NL%LGPINGP=.TRUE.,
  YS_NL%LPHY=.FALSE.,
  YS_NL%LQM=.TRUE.,
  YS_NL%LREQOUT=.TRUE.,
  YS_NL%LT1=.TRUE.,
  YS_NL%NREQIN=1,
  YTKE_NL%LADV=.TRUE.,
  YTKE_NL%LGP=.TRUE.,
  YTKE_NL%LGPINGP=.TRUE.,
  YTKE_NL%LQM=.TRUE.,
  YTKE_NL%LREQOUT=.TRUE.,
  YTKE_NL%LT1=.TRUE.,
  YTKE_NL%NCOUPLING=0,
  YTKE_NL%NREQIN=1,
/
&NAMGRIB
/
&NAMGWD
/
&NAMGWDIAG
/
&NAMGWWMS
/
&NAMIAU
/
&NAMICE
/
&NAMINI
/
&NAMINTFLEX
/
&NAMIOMI
/
&NAMIOS
/
&NAMIO_SERV
/
&NAMJBCODES
/
&NAMJG
/
&NAMLCZ
/
&NAMLIMA
/
&NAMLSFORC
/
&NAMMARS
/
&NAMMCC
/
&NAMMCUF
/
&NAMMETHOX
/
&NAMMKODB
/
&NAMMODERR
/
&NAMMTS
/
&NAMMWAVE
/
&NAMNORGWD
/
&NAMNPROF
/
&NAMNUD
/
&NAMNUDGLH
/
&NAMOBS
/
&NAMONEDVAR
/
&NAMOOPS
/
&NAMOPH
/
&NAMOPTCMEM
/
&NAMPAR0
  LOPT_SCALAR=.TRUE.,
  MBX_SIZE=2048000000,
  MP_TYPE=2,
  NOUTPUT=1,
  NPRINTLEV=1,
  NPROC=AUTO,
/
&NAMPAR1
  LEQ_REGIONS=.TRUE.,
  LSLONDEM=.TRUE.,
  LSPLIT=.TRUE.,
  NCOMBFLEN=1638400,
  NSTRIN=AUTO,
  NSTROUT=AUTO,
/
&NAMPARAR
/
&NAMPERTPAR
/
&NAMPHMSE
  LPGDFWR=.FALSE.,
/
&NAMPHY
  CGMIXLEN='AY',
  LADJCLD=.TRUE.,
  LAERODES=.TRUE.,
  LAEROLAN=.TRUE.,
  LAEROSEA=.TRUE.,
  LAEROSOO=.TRUE.,
  LAEROSUL=.TRUE.,
  LAEROVOL=.FALSE.,
  LCONDWT=.TRUE.,
  LCVPPKF=.TRUE.,
  LCVRA=.FALSE.,
  LCVTDK=.TRUE.,
  LDAYD=.TRUE.,
  LDIFCONS=.TRUE.,
  LDPRECIPS=.FALSE.,
  LDPRECIPS2=.FALSE.,
  LECDEEP=.FALSE.,
  LECSHAL=.TRUE.,
  LECT=.TRUE.,
  LECTFL=.TRUE.,
  LECTFL0=.TRUE.,
  LECTPRODCVP=.TRUE.,
  LEDMFI=.FALSE.,
  LEDR=.TRUE.,
  LFLUSO=.TRUE.,
  LFPCOR=.TRUE.,
  LGLACIERS=.TRUE.,
  LGPCMT=.FALSE.,
  LNCVPGY=.FALSE.,
  LNEBECT=.FALSE.,
  LNEWD=.TRUE.,
  LNOIAS=.TRUE.,
  LO3ABC=.TRUE.,
  LO3FL=.TRUE.,
  LOZONE=.FALSE.,
  LPROCLD=.TRUE.,
  LPTOPC=.TRUE.,
  LRAY=.FALSE.,
  LRAYFM=.TRUE.,
  LRAYLU=.TRUE.,
  LRNUMX=.TRUE.,
  LSMITH_CDEV=.TRUE.,
  LSSD=.TRUE.,
  LSTRA=.FALSE.,
  LVGSN=.TRUE.,
  LZ0HSREL=.TRUE.,
  NCALLRAD=2,
/
&NAMPHY0
  AECLS4=3.,
  ALMAVE=0.,
  ALMAVX=1000.,
  ECTMAX=35.,
  EDD=1.,
  EDK=1.,
  GCVHMIN=30000.,
  GCVNU=0.00005,
  GCVOMCA=-1.918,
  GCVOMCC=1.35,
  GCVOMDPS=2000.,
  GCVOMGE=1.,
  GCVOMGQ=0.,
  GCVOMGS=1.,
  GCVOMGSX=0.5,
  GCVPSI=1.,
  GCVPSIE=1.,
  GCVRHMAX=1.,
  GCVRHMIN=0.5,
  GDDEVA=0.2,
  GWDCD=5.4,
  GWDSE=0.005,
  GWDVALI=0.5,
  QSNEBC=-1.,
  QSSUSC=5.,
  RCVEVAP=0.25,
  REFLKUO=5000.,
  REVASX=2.0D-7,
  RFACNSM=1.2,
  RFLCHCE=0.25,
  RHCRIT2=0.95,
  RICRLM=0.5,
  RKFBTAU=7200.,
  RPRTH=1.,
  RQCRNS=0.,
  RQICRSN=1.,
  RQICRT2=0.,
  RQICVMIN=0.00001,
  RQLCR=0.0005,
  SXNBCO=1.,
  TDDGP=0.6,
  TFVI=0.08,
  TFVL=0.02,
  TFVLD=0.02,
  TFVS=1.5,
  TUDGP=0.6,
  USURIC=0.175,
  USURICL=1.,
  USURID=0.1,
  VZ0CM=0.0001,
  XBLM=8.5,
  XMAXLM=5000.,
  XMINLM=10.,
/
&NAMPHY1
  ALBMIN=0.65,
  ALCRIN=0.81,
  ALRCN1=0.01,
  EMMGLA=0.98,
  EMMMER=0.99,
/
&NAMPHY2
/
&NAMPHY3
/
&NAMPHYDS
/
&NAMPPC
/
&NAMPPVI
/
&NAMPRE
/
&NAMRAD15
/
&NAMRADCMEM
/
&NAMRCF
/
&NAMRCOEF
/
&NAMRES
  NFRRES=999999,
  NRESTS(0)=1,1,
/
&NAMRGRI
/
&NAMRINC
/
&NAMRIP
  CSTOP=AUTO,
  TSTEP=900.,
/
&NAMRIP0
  LASTRF=.TRUE.,
  NINDAT=AUTO,
  NSSSSS=AUTO,
/
&NAMRLX
/
&NAMSATS
/
&NAMSATSIM
/
&NAMSCC
/
&NAMSCEN
  RI0=1361.,
/
&NAMSCM
/
&NAMSEKF
/
&NAMSENS
/
&NAMSFXCMP
/
&NAMSIMPHL
/
&NAMSPNG
/
&NAMSPP
/
&NAMSPSDT
/
&NAMSTA
/
&NAMSTOPH
/
&NAMSWE
/
&NAMTESTVAR
/
&NAMTHLIM
/
&NAMTOPH
  ETCVIM=1000.,
  ETNEBU=1000.,
  ETPLUI=1000.,
  XDRMTK=2.0D-8,
  XDRMTP=800.,
  XDRMTX=4.0D-7,
  XDRMUK=1.0D-7,
  XDRMUP=800.,
  XDRMUX=0.000002,
/
&NAMTRAJ
/
&NAMTRAJP
/
&NAMTRANS
  LFFTW=.TRUE.,
/
&NAMTRANS0
/
&NAMTS
/
&NAMVAR
/
&NAMVARBC
/
&NAMVARBC_AIREP
/
&NAMVARBC_ALLSKY
/
&NAMVARBC_GBRAD
/
&NAMVARBC_MODES
/
&NAMVARBC_RAD
/
&NAMVARBC_RSONDE
/
&NAMVARBC_SFCOBS
/
&NAMVARBC_TCWV
/
&NAMVARBC_TO3
/
&NAMVAREPS
/
&NAMVDF
/
&NAMVDOZ
/
&NAMVOLCANO
/
&NAMVRTL
/
&NAMVV0
/
&NAMVV1
/
&NAMVWRK
/
&NAMWAVELETJB
/
&NAMXFU
/
&NAMXIOS
/
&NAM_CANAPE
/
&NAM_DISTRIBUTED_VECTORS
/
&NAPHLC
/
&NEMCT0
/
&NEMDIM
/
&NEMDYN
/
&NEMELBC0A
/
&NEMELBC0B
/
&NEMFPEZO
/
&NEMGEO
/
&NEMJK
/
&NEMVAR
/
&NEMWAVELET
/
&RADIATION
  CLOUD_FRACTION_THRESHOLD=0.000001,
  CLOUD_INHOM_DECORR_SCALING=0.5,
  CLOUD_MIXING_RATIO_THRESHOLD=1.00D-9,
  DIRECTORY_NAME='.',
  DO_CLEAR=.TRUE.,
  DO_FU_LW_ICE_OPTICS_BUG=.FALSE.,
  DO_LW_AEROSOL_SCATTERING=.FALSE.,
  DO_LW_CLOUD_SCATTERING=.FALSE.,
  DO_LW_DERIVATIVES=.TRUE.,
  DO_SAVE_GPOINT_FLUX=.FALSE.,
  DO_SAVE_RADIATIVE_PROPERTIES=.FALSE.,
  DO_SAVE_SPECTRAL_FLUX=.FALSE.,
  DO_SURFACE_SW_SPECTRAL_FLUX=.TRUE.,
  DO_SW_DELTA_SCALING_WITH_GASES=.TRUE.,
  GAS_MODEL_NAME='RRTMG-IFS',
  ICE_MODEL_NAME='Fu-IFS',
  IVERBOSE=1,
  IVERBOSESETUP=3,
  LIQUID_MODEL_NAME='Slingo',
  LW_SOLVER_NAME='McICA',
  OVERLAP_SCHEME_NAME='Exp-Exp',
  SW_SOLVER_NAME='McICA',
  USE_AEROSOLS=.TRUE.,
  USE_BETA_OVERLAP=.FALSE.,
/
