 &NAETLDIAG
 /
 &NAMACV
 /
 &NAMAERDET
 /
 &NAMCOMPO
 /
 &NAMLIMA
 /
 &NAMMETHOX
 /
 &NAMSPP
 /
 &NAM_DIAG_ISBAN
   LSURF_MISC_BUDGET=.TRUE.,
   LSURF_EVAP_BUDGET=.TRUE.,
   LSURF_DIAG_ALBEDO=.TRUE.,
   LPATCH_BUDGET=.FALSE.,
   LPGD=.TRUE.,
 /
 &NAM_DIAG_SURFN
   N2M=2,
   LSURF_BUDGET=.TRUE.,
   LCOEF=.TRUE.,
   LSURF_VARS=.TRUE.,
 /
 &NAM_ISBAN
   CROUGH='NONE',
   XCGMAX=0.000008,
   LGLACIER=.TRUE.,
 /
 &NAM_REPROD_OPER
   LREPROD_OPER=.TRUE.,
 /
 &NAM_SEAFLUXn
   CSEA_FLUX='ECUME6',
   LPWG=.FALSE.,
   LPRECIP=.TRUE.,
   LPWEBB=.FALSE.,
   XICHCE=0.,
 /
 &NAM_SEAICEn
   LDIAG_SEAICE=.TRUE.,
   CINTERPOL_SIC='UNIF',
   CONSTRAIN_CSV='NONE',
   XFREEZING_SST=-1.8,
   XSIC_EFOLDING_TIME=0,
   XCD_ICE_CST=0.0015,
   XSI_FLX_DRV=-20.,
 /
 &NAM_SSON
   CROUGH='Z01D',
 /
 &NAM_SURF_ATM
   LARP_PN=.TRUE.,
   XRIMAX=0.2,
   LNOSOF=.FALSE.,
   LVERTSHIFT=.TRUE.,
 /
 &NAM_SURF_CSTS
   XANSMIN=0.65,
   XALBWATICE=0.65,
   XALBSEAICE=0.65,
   XEMISWATICE=0.97,
   XZ0SN=0.01,
   XZ0HSN=0.001,
   XEMISSN=0.99,
 /
 &NAM_WRITE_DIAG_SURFn
   LPROVAR_TO_DIAG=.FALSE.,
   LSELECT=.TRUE.,
   CSELECT(1)='LONINF','LATINF','LONSUP','LATSUP','LCPL_GCM','HANDLE_SIC','SSS','LATGAUSS','LONGAUSS','LAT_G_XY','LON_G_XY','MESHGAUSS','SST','Z0SEA','TS_WATER','Z0WATER','TG1','TG2','TG3','WG1','WG2','WG3','WGI1','WGI2','WGI3','WR','WSN_VEG1','RSN_VEG1','ASN_VEG','TSRAD_NAT','RESA','STORAGE_TYPE','MASDEV','VERSION','BUG','DIM_FULL','DTCUR','NLATI','LAPO','LOPO','CODIL','NLOPA','RW_PRECIP','BUDC','SEA_OCEAN','SEA_SBL','WAT_SBL','SN_VEG_N','SN_VEG','LSNOW_FRAC_T','GLACIER','TEMPARP','NLITTER','NLITTLEVS','NSOILCARB','ISBA_CANOPY','STORAGETYPE','CARTESIAN','GRID_TYPE','SN_VEG_TYP','RESPSL','T2M','HU2M','LAI','VEG','RSMIN','DG2','ICE_STO','_FBUF_SIZE','_FBUF_DIM1','_FBUF_DIM2','_FBUF_NAME','_FBUF_TYPE','_FBUF_MASK','ALBVIS_ISBA','ALBNIR_ISBA','ALBUV_ISBA','ALBVIS_S','ALBNIR_S','ALBUV_S','ICENL','ICENT','ICEUSTAR','ICEAGE_1','ICEVMP_1','ICEASN_1','ICEFSI_1','ICEHSI_1','ICESSI_1','ICETSF_1','ICEHSN_1','ICERSN_1','ICEH_1_1','ICEH_1_2','ICEH_1_3','ICEH_1_4','ICEH_1_5','ICEH_1_6','ICEH_1_7','ICEH_1_8','ICEH_1_9','ICEH_1_10','SIC_MTH0','SIC_MTH1','SIC_MTH2','SIC_MTH3','SIC','SEAICE_SCHEM',
 /
 &NAM_WRITE_SURF_ATM
   LNOWRITE_TEXFILE=.TRUE.,
 /
