 &NAM_DIAG_ISBAN
   LPATCH_BUDGET=.FALSE.,
   LPGD=.TRUE.,
   LSURF_DIAG_ALBEDO=.TRUE.,
   LSURF_EVAP_BUDGET=.TRUE.,
   LSURF_MISC_BUDGET=.TRUE.,
 /
 &NAM_DIAG_SURFN
   LCOEF=.TRUE.,
   LSURF_BUDGET=.TRUE.,
   LSURF_VARS=.TRUE.,
   N2M=2,
 /
 &NAM_ISBAN
   LGLACIER=.TRUE.,
   XCGMAX=0.000008,
 /
 &NAM_REPROD_OPER
   LREPROD_OPER=.TRUE.,
 /
 &NAM_SEAFLUXN
   CSEA_FLUX='ECUME6',
   LPRECIP=.TRUE.,
   LPWEBB=.FALSE.,
   LPWG=.FALSE.,
   XICHCE=0.,
 /
 &NAM_SEAICEN
   CINTERPOL_SIC='UNIF',
   CONSTRAIN_CSV='NONE',
   LSIC_CST=.TRUE.,
   XCD_ICE_CST=0.0015,
   XFREEZING_SST=-1.8,
   XSIC_EFOLDING_TIME=0,
   XSI_FLX_DRV=-20.,
 /
 &NAM_SSON
   CROUGH='Z01D',
 /
 &NAM_SURF_ATM
   LARP_PN=.TRUE.,
   LNOSOF=.FALSE.,
   LVERTSHIFT=.TRUE.,
   XRIMAX=0.2,
 /
 &NAM_SURF_CSTS
   XALBSEAICE=0.65,
   XALBWATICE=0.65,
   XANSMIN=0.65,
   XEMISSN=0.99,
   XEMISWATICE=0.97,
   XZ0HSN=0.001,
   XZ0SN=0.01,
 /
 &NAM_WRITE_DIAG_SURFN
   CSELECT(1)='LONINF','LATINF','LONSUP','LATSUP','LCPL_GCM','HANDLE_SIC','SSS','LATGAUSS','LONGAUSS','LAT_G_XY','LON_G_XY','MESHGAUSS','SST','Z0SEA','TS_WATER','Z0WATER','TG1P1','TG2P1','TG3P1','WG1P1','WG2P1','WG3P1','WGI1P1','WGI2P1','WGI3P1','WRP1','WSN_VEG1P1','RSN_VEG1P1','ASN_VEGP1','TSRAD_NAT','RESAP1','STORAGE_TYPE','MASDEV','VERSION','BUG','DIM_FULL','DTCUR','NLATI','LAPO','LOPO','CODIL','NLOPA','RW_PRECIP','BUDC','SEA_OCEAN','SEA_SBL','WAT_SBL','SN_VEG_N','SN_VEGP1','LSNOW_FRAC_T','GLACIER','TEMPARP','NLITTER','NLITTLEVS','NSOILCARB','ISBA_CANOPY','STORAGETYPE','CARTESIAN','GRID_TYPE','SN_VEG_TYP','RESPSL','T2M','HU2M','LAIP1','VEGP1','RSMINP1','DG2P1','ICE_STOP1','_FBUF_SIZE','_FBUF_DIM1','_FBUF_DIM2','_FBUF_NAME','_FBUF_TYPE','_FBUF_MASK','ICENL','ICENT','ICEUSTAR','ICEAGE_1','ICEVMP_1','ICEASN_1','ICEFSI_1','ICEHSI_1','ICESSI_1','ICETSF_1','ICEHSN_1','ICERSN_1','ICEH_1_1','ICEH_1_2','ICEH_1_3','ICEH_1_4','ICEH_1_5','ICEH_1_6','ICEH_1_7','ICEH_1_8','ICEH_1_9','ICEH_1_10','SIC','SEAICE_SCHEM','SPLIT_PATCH','TSRAD','WRITE_EXT',
   LPROVAR_TO_DIAG=.FALSE.,
   LSELECT=.TRUE.,
 /
 &NAM_WRITE_SURF_ATM
   LNOWRITE_TEXFILE=.TRUE.,
   LSPLIT_PATCH=.TRUE.,
 /
