&NAM_CARTESIAN
  NIMAX           = 1,
  NJMAX           = 4,
  XDX             = 250000.,
  XDY             = 250000.,
  XLAT0           = 36.0,
  XLON0           = -97.5,
/
&NAM_COVER
  XUNIF_COVER(1)  = 1.,
/
&NAM_DIAG_SURFn
  LCOEF           = T,
  LRAD_BUDGET     = T,
  LRESET_BUDGETC  = T,
  LSURF_BUDGET    = T,
  LSURF_BUDGETC   = T,
  LSURF_VARS      = T,
  N2M             = 2,
/
&NAM_FRAC
  LECOCLIMAP      = F,
  XUNIF_NATURE    = 0.,
  XUNIF_SEA       = 1.,
  XUNIF_TOWN      = 0.,
  XUNIF_WATER     = 0.,
/
&NAM_IDEAL_FLUX
  CSFTQ           = 'W/m2',
  CUSTARTYPE      = 'Z0',
  NFORCF          = 30,
  NFORCT          = 30,
  XALB            = 0.07,
  XEMIS           = 1.,
  XSFCO2          = 0.,
  XSFTH(   1)     = -30.000000,
  XSFTH(   2)     = -15.000000,
  XSFTH(   3)     = 0.000000,
  XSFTH(   4)     = 15.000000,
  XSFTH(   5)     = 30.000000,
  XSFTH(   6)     = 45.000000,
  XSFTH(   7)     = 60.000000,
  XSFTH(   8)     = 75.000000,
  XSFTH(   9)     = 90.000000,
  XSFTH(  10)     = 100.000000,
  XSFTH(  11)     = 110.000000,
  XSFTH(  12)     = 120.000000,
  XSFTH(  13)     = 130.000000,
  XSFTH(  14)     = 140.000000,
  XSFTH(  15)     = 140.000000,
  XSFTH(  16)     = 140.000000,
  XSFTH(  17)     = 132.000000,
  XSFTH(  18)     = 124.000000,
  XSFTH(  19)     = 116.000000,
  XSFTH(  20)     = 108.000000,
  XSFTH(  21)     = 100.000000,
  XSFTH(  22)     = 78.000000,
  XSFTH(  23)     = 56.000000,
  XSFTH(  24)     = 34.000000,
  XSFTH(  25)     = 12.000000,
  XSFTH(  26)     = -10.000000,
  XSFTH(  27)     = -10.000000,
  XSFTH(  28)     = -10.000000,
  XSFTH(  29)     = -10.000000,
  XSFTH(  30)     = -10.000000,
  XSFTQ(   1)     = 5.000000,
  XSFTQ(   2)     = 35.625000,
  XSFTQ(   3)     = 66.250000,
  XSFTQ(   4)     = 96.875000,
  XSFTQ(   5)     = 127.500000,
  XSFTQ(   6)     = 158.125000,
  XSFTQ(   7)     = 188.750000,
  XSFTQ(   8)     = 219.375000,
  XSFTQ(   9)     = 250.000000,
  XSFTQ(  10)     = 290.000000,
  XSFTQ(  11)     = 330.000000,
  XSFTQ(  12)     = 370.000000,
  XSFTQ(  13)     = 410.000000,
  XSFTQ(  14)     = 450.000000,
  XSFTQ(  15)     = 475.000000,
  XSFTQ(  16)     = 500.000000,
  XSFTQ(  17)     = 484.000000,
  XSFTQ(  18)     = 468.000000,
  XSFTQ(  19)     = 452.000000,
  XSFTQ(  20)     = 436.000000,
  XSFTQ(  21)     = 420.000000,
  XSFTQ(  22)     = 372.000000,
  XSFTQ(  23)     = 324.000000,
  XSFTQ(  24)     = 276.000000,
  XSFTQ(  25)     = 228.000000,
  XSFTQ(  26)     = 180.000000,
  XSFTQ(  27)     = 135.000000,
  XSFTQ(  28)     = 90.000000,
  XSFTQ(  29)     = 45.000000,
  XSFTQ(  30)     = 0.000000,
  XTIMEF(   1)    = 0.000000,
  XTIMEF(   2)    = 1800.000000,
  XTIMEF(   3)    = 3600.000000,
  XTIMEF(   4)    = 5400.000000,
  XTIMEF(   5)    = 7200.000000,
  XTIMEF(   6)    = 9000.000000,
  XTIMEF(   7)    = 10800.000000,
  XTIMEF(   8)    = 12600.000000,
  XTIMEF(   9)    = 14400.000000,
  XTIMEF(  10)    = 16200.000000,
  XTIMEF(  11)    = 18000.000000,
  XTIMEF(  12)    = 19800.000000,
  XTIMEF(  13)    = 21600.000000,
  XTIMEF(  14)    = 23400.000000,
  XTIMEF(  15)    = 25200.000000,
  XTIMEF(  16)    = 27000.000000,
  XTIMEF(  17)    = 28800.000000,
  XTIMEF(  18)    = 30600.000000,
  XTIMEF(  19)    = 32400.000000,
  XTIMEF(  20)    = 34200.000000,
  XTIMEF(  21)    = 36000.000000,
  XTIMEF(  22)    = 37800.000000,
  XTIMEF(  23)    = 39600.000000,
  XTIMEF(  24)    = 41400.000000,
  XTIMEF(  25)    = 43200.000000,
  XTIMEF(  26)    = 45000.000000,
  XTIMEF(  27)    = 46800.000000,
  XTIMEF(  28)    = 48600.000000,
  XTIMEF(  29)    = 50400.000000,
  XTIMEF(  30)    = 52200.000000,
  XTIMET(   1)    =   0.00,
  XTIMET(   2)    = 1800.00,
  XTIMET(   3)    = 3600.00,
  XTIMET(   4)    = 5400.00,
  XTIMET(   5)    = 7200.00,
  XTIMET(   6)    = 9000.00,
  XTIMET(   7)    = 10800.00,
  XTIMET(   8)    = 12600.00,
  XTIMET(   9)    = 14400.00,
  XTIMET(  10)    = 16200.00,
  XTIMET(  11)    = 18000.00,
  XTIMET(  12)    = 19800.00,
  XTIMET(  13)    = 21600.00,
  XTIMET(  14)    = 23400.00,
  XTIMET(  15)    = 25200.00,
  XTIMET(  16)    = 27000.00,
  XTIMET(  17)    = 28800.00,
  XTIMET(  18)    = 30600.00,
  XTIMET(  19)    = 32400.00,
  XTIMET(  20)    = 34200.00,
  XTIMET(  21)    = 36000.00,
  XTIMET(  22)    = 37800.00,
  XTIMET(  23)    = 39600.00,
  XTIMET(  24)    = 41400.00,
  XTIMET(  25)    = 43200.00,
  XTIMET(  26)    = 45000.00,
  XTIMET(  27)    = 46800.00,
  XTIMET(  28)    = 48600.00,
  XTIMET(  29)    = 50400.00,
  XTIMET(  30)    = 52200.00,
  XTSRAD(   1)    = 310.000000,
  XTSRAD(   2)    = 310.000000,
  XTSRAD(   3)    = 310.000000,
  XTSRAD(   4)    = 310.000000,
  XTSRAD(   5)    = 310.000000,
  XTSRAD(   6)    = 310.000000,
  XTSRAD(   7)    = 310.000000,
  XTSRAD(   8)    = 310.000000,
  XTSRAD(   9)    = 310.000000,
  XTSRAD(  10)    = 310.000000,
  XTSRAD(  11)    = 310.000000,
  XTSRAD(  12)    = 310.000000,
  XTSRAD(  13)    = 310.000000,
  XTSRAD(  14)    = 310.000000,
  XTSRAD(  15)    = 310.000000,
  XTSRAD(  16)    = 310.000000,
  XTSRAD(  17)    = 310.000000,
  XTSRAD(  18)    = 310.000000,
  XTSRAD(  19)    = 310.000000,
  XTSRAD(  20)    = 310.000000,
  XTSRAD(  21)    = 310.000000,
  XTSRAD(  22)    = 310.000000,
  XTSRAD(  23)    = 310.000000,
  XTSRAD(  24)    = 310.000000,
  XTSRAD(  25)    = 310.000000,
  XTSRAD(  26)    = 310.000000,
  XTSRAD(  27)    = 310.000000,
  XTSRAD(  28)    = 310.000000,
  XTSRAD(  29)    = 310.000000,
  XTSRAD(  30)    = 310.000000,
  XZ0             = 0.035,
/
&NAM_IO_OFFLINE
  CPGDFILE        = 'PGD',
  CPREPFILE       = 'PREP',
  CSURF_FILETYPE  = 'FA   ',
  LFAGMAP         = T,
/
&NAM_IO_SURF_ARO
/
&NAM_PGD_GRID
  CGRID           = 'CARTESIAN',
/
&NAM_PGD_SCHEMES
  CNATURE         = 'NONE',
  CSEA            = 'FLUX',
  CTOWN           = 'NONE',
  CWATER          = 'NONE',
/
&NAM_PREP_SURF_ATM
  NDAY            = 21,
  NMONTH          = 6,
  NYEAR           = 1997,
  XTIME           = 41400,
/
&NAM_SURF_ATM
  LNOSOF          = T,
  LVERTSHIFT      = F,
  XDELTA_MAX      = 0.9,
  XRIMAX          = 0.2,
  XVZ0CM          = 1.E-5,
/
&NAM_SURF_CSTS
  XALBCOEF_TA96   = 0.036,
  XALBSCA_WAT     = 0.065,
  XALBSEAICE      = 0.71,
  XALBWAT         = 0.065,
  XALBWATICE      = 0.40,
  XEMISSN         = 0.99,
  XEMISWAT        = 0.96,
  XEMISWATICE     = 0.97,
  XHGLA           = 1.0E3,
  XWSNV           = 2.0,
/
&NAM_ZS
  XUNIF_ZS        = 314.0,
/
